---- qbsp / ericw-tools v0.18.1-32-g6660c5f ----
Input file: arena2.map
Output file: arena2.bsp

---- LoadMapFile ----
*** WARNING 06: No info_player_deathmatch entities in level
          132 faces
           22 brushes
            2 entities
            1 unique texnames
           12 texinfo

*** WARNING 00: No wad or _wad key exists in the worldmodel
Processing hull 0...
---- Brush_LoadEntity ----
           22 brushes
           33 planes
---- CSGFaces ----
          132 brushfaces
          106 csgfaces
           79 mergedfaces
---- SolidBSP ----
          145 split nodes
           48 solid leafs
           98 empty leafs
            0 water leafs
            0 detail leafs
            0 detail illusionary leafs
            0 detail fence leafs
            0 illusionary visblocker leafs
          210 leaffaces
          196 nodefaces
---- Portalize ----
           98 vis leafs
           98 vis clusters
          232 vis portals
---- FillOutside ----
*** WARNING 10: Reached occupant at (8 0 40), no filling performed.
Leak file written to arena2.pts
---- MakeFaceEdges ----
---- GrowRegions ----
Processing hull 1...
*** WARNING 19: No entities in empty space -- no filling performed (hull 1)
Processing hull 2...
*** WARNING 19: No entities in empty space -- no filling performed (hull 2)
*** WARNING 16: Texture __TB_empty not found
---- WriteBSPFile ----
Wrote arena2.bsp
           96 planes             1920
          239 vertexes           2868
          145 nodes              3480
           12 texinfo             480
          196 faces              3920
          259 clipnodes          2072
           99 leafs              2772
          210 marksurfaces        420
          784 surfedges          3136
          492 edges              1968
            1 textures              8
              lightdata             0
              visdata               0
              entdata             133

0.041 seconds elapsed
Peak memory usage: 1221256 (1.2M)
