---- qbsp / ericw-tools v0.18.1-32-g6660c5f ----
Input file: arena2.map
Output file: arena2.bsp

---- LoadMapFile ----
*** WARNING 06: No info_player_deathmatch entities in level
          240 faces
           40 brushes
            2 entities
            1 unique texnames
           12 texinfo

*** WARNING 00: No wad or _wad key exists in the worldmodel
Processing hull 0...
---- Brush_LoadEntity ----
           40 brushes
           54 planes
---- CSGFaces ----
          240 brushfaces
          199 csgfaces
          145 mergedfaces
---- SolidBSP ----
          239 split nodes
           84 solid leafs
          156 empty leafs
            0 water leafs
            0 detail leafs
            0 detail illusionary leafs
            0 detail fence leafs
            0 illusionary visblocker leafs
          349 leaffaces
          323 nodefaces
---- Portalize ----
          156 vis leafs
          156 vis clusters
          391 vis portals
---- FillOutside ----
*** WARNING 10: Reached occupant at (8 0 40), no filling performed.
Leak file written to arena2.pts
---- MakeFaceEdges ----
---- GrowRegions ----
Processing hull 1...
*** WARNING 19: No entities in empty space -- no filling performed (hull 1)
Processing hull 2...
*** WARNING 19: No entities in empty space -- no filling performed (hull 2)
*** WARNING 16: Texture __TB_empty not found
---- WriteBSPFile ----
Wrote arena2.bsp
          150 planes             3000
          404 vertexes           4848
          239 nodes              5736
           12 texinfo             480
          323 faces              6460
          451 clipnodes          3608
          157 leafs              4396
          349 marksurfaces        698
         1292 surfedges          5168
          842 edges              3368
            1 textures              8
              lightdata             0
              visdata               0
              entdata             133

0.050 seconds elapsed
Peak memory usage: 2065658 (2.0M)
