---- qbsp / ericw-tools v0.18.1-32-g6660c5f ----
Input file: arena2.map
Output file: arena2.bsp

---- LoadMapFile ----
*** WARNING 06: No info_player_deathmatch entities in level
          474 faces
           79 brushes
            2 entities
            1 unique texnames
           20 texinfo

*** WARNING 01: No valid WAD filenames in worldmodel
Processing hull 0...
---- Brush_LoadEntity ----
           79 brushes
          117 planes
---- CSGFaces ----
          474 brushfaces
          431 csgfaces
          371 mergedfaces
---- SolidBSP ----
          647 split nodes
          222 solid leafs
          426 empty leafs
            0 water leafs
            0 detail leafs
            0 detail illusionary leafs
            0 detail fence leafs
            0 illusionary visblocker leafs
          899 leaffaces
          877 nodefaces
---- Portalize ----
          426 vis leafs
          426 vis clusters
         1271 vis portals
---- FillOutside ----
*** WARNING 10: Reached occupant at (8 0 40), no filling performed.
Leak file written to arena2.pts
---- MakeFaceEdges ----
---- GrowRegions ----
Processing hull 1...
*** WARNING 19: No entities in empty space -- no filling performed (hull 1)
Processing hull 2...
*** WARNING 19: No entities in empty space -- no filling performed (hull 2)
*** WARNING 16: Texture __TB_empty not found
---- WriteBSPFile ----
Wrote arena2.bsp
          220 planes             4400
         1086 vertexes          13032
          647 nodes             15528
           18 texinfo             720
          877 faces             17540
          822 clipnodes          6576
          427 leafs             11956
          899 marksurfaces       1798
         3508 surfedges         14032
         2229 edges              8916
            1 textures              8
              lightdata             0
              visdata               0
              entdata             217

0.070 seconds elapsed
Peak memory usage: 4588370 (4.4M)
