---- qbsp / ericw-tools v0.18.1-32-g6660c5f ----
Input file: cube_dm.map
Output file: cube_dm.bsp

---- LoadMapFile ----
line 6: Unrecognised string escape - \M
line 6: Unrecognised string escape - \q
line 6: Unrecognised string escape - \w
line 6: Unrecognised string escape - \p
line 6: Unrecognised string escape - \M
line 6: Unrecognised string escape - \q
line 6: Unrecognised string escape - \w
line 6: Unrecognised string escape - \S
*** WARNING 06: No info_player_deathmatch entities in level
            6 faces
            1 brushes
            2 entities
            1 unique texnames
            6 texinfo

Opened WAD: E:\My_Workspace\quakedev\wad\prototype_1_2.wad
Opened WAD: E:\My_Workspace\quakedev\wad\START.WAD
Processing hull 0...
---- Brush_LoadEntity ----
            1 brushes
            6 planes
---- CSGFaces ----
            6 brushfaces
            6 csgfaces
            6 mergedfaces
---- SolidBSP ----
            6 split nodes
            1 solid leafs
            6 empty leafs
            0 water leafs
            0 detail leafs
            0 detail illusionary leafs
            0 detail fence leafs
            0 illusionary visblocker leafs
           96 leaffaces
           96 nodefaces
---- Portalize ----
            6 vis leafs
            6 vis clusters
           12 vis portals
---- FillOutside ----
*** WARNING 10: Reached occupant at (4 0 40), no filling performed.
Leak file written to cube_dm.pts
---- MakeFaceEdges ----
---- GrowRegions ----
Processing hull 1...
*** WARNING 19: No entities in empty space -- no filling performed (hull 1)
Processing hull 2...
*** WARNING 19: No entities in empty space -- no filling performed (hull 2)
*** WARNING 16: Texture __TB_empty not found
---- WriteBSPFile ----
Wrote cube_dm.bsp
           17 planes              340
          118 vertexes           1416
            6 nodes               144
            6 texinfo             240
           96 faces              1920
           12 clipnodes            96
            7 leafs               196
           96 marksurfaces        192
          384 surfedges          1536
          217 edges               868
            1 textures              8
              lightdata             0
              visdata               0
              entdata             197

0.025 seconds elapsed
Peak memory usage: 292108 (285.3k)
