---- qbsp / ericw-tools v0.18.1-32-g6660c5f ----
Input file: shad_dm2.map
Output file: shad_dm2.bsp

---- LoadMapFile ----
*** WARNING 06: No info_player_deathmatch entities in level
           90 faces
           15 brushes
            2 entities
            2 unique texnames
           51 texinfo

Opened WAD: E:/My_Workspace/quakedev/wad/START.WAD
Processing hull 0...
---- Brush_LoadEntity ----
           15 brushes
           30 planes
---- CSGFaces ----
           90 brushfaces
           68 csgfaces
           55 mergedfaces
---- SolidBSP ----
           89 split nodes
           32 solid leafs
           58 empty leafs
            0 water leafs
            0 detail leafs
            0 detail illusionary leafs
            0 detail fence leafs
            0 illusionary visblocker leafs
          602 leaffaces
          584 nodefaces
---- Portalize ----
           58 vis leafs
           58 vis clusters
          139 vis portals
---- FillOutside ----
           46 outleafs
---- MergeAll ----
           45 mergefaces
---- SolidBSP ----
           40 split nodes
           29 solid leafs
           12 empty leafs
            0 water leafs
            0 detail leafs
            0 detail illusionary leafs
            0 detail fence leafs
            0 illusionary visblocker leafs
          273 leaffaces
          239 nodefaces
---- Portalize ----
           12 vis leafs
           12 vis clusters
           21 vis portals
---- Tjunc ----
          141 world edges
          683 edge points
          120 edges added by tjunctions
            0 faces added by tjunctions
---- MakeFaceEdges ----
---- GrowRegions ----
Processing hull 1...
*** WARNING 19: No entities in empty space -- no filling performed (hull 1)
Processing hull 2...
*** WARNING 19: No entities in empty space -- no filling performed (hull 2)
---- WriteBSPFile ----
Wrote shad_dm2.bsp
           71 planes             1420
          301 vertexes           3612
           40 nodes               960
           27 texinfo            1080
          239 faces              4780
          170 clipnodes          1360
           13 leafs               364
          273 marksurfaces        546
         1076 surfedges          4304
          539 edges              2156
            2 textures          11868
              lightdata             0
              visdata               0
              entdata             155

0.051 seconds elapsed
Peak memory usage: 1254970 (1.2M)
