---- qbsp / ericw-tools v0.18.1-32-g6660c5f ----
Input file: shad_dm2.map
Output file: shad_dm2.bsp

---- LoadMapFile ----
*** WARNING 06: No info_player_deathmatch entities in level
           42 faces
            7 brushes
            2 entities
            1 unique texnames
            6 texinfo

*** WARNING 00: No wad or _wad key exists in the worldmodel
Processing hull 0...
---- Brush_LoadEntity ----
            7 brushes
           12 planes
---- CSGFaces ----
           42 brushfaces
           29 csgfaces
           14 mergedfaces
---- SolidBSP ----
           21 split nodes
            5 solid leafs
           17 empty leafs
            0 water leafs
            0 detail leafs
            0 detail illusionary leafs
            0 detail fence leafs
            0 illusionary visblocker leafs
           51 leaffaces
           51 nodefaces
---- Portalize ----
           17 vis leafs
           17 vis clusters
           39 vis portals
---- FillOutside ----
*** WARNING 10: Reached occupant at (0 -4 40), no filling performed.
Leak file written to shad_dm2.pts
---- MakeFaceEdges ----
---- GrowRegions ----
Processing hull 1...
*** WARNING 19: No entities in empty space -- no filling performed (hull 1)
Processing hull 2...
*** WARNING 19: No entities in empty space -- no filling performed (hull 2)
*** WARNING 16: Texture __TB_empty not found
---- WriteBSPFile ----
Wrote shad_dm2.bsp
           31 planes              620
           69 vertexes            828
           21 nodes               504
            6 texinfo             240
           51 faces              1020
           43 clipnodes           344
           18 leafs               504
           51 marksurfaces        102
          204 surfedges           816
          136 edges               544
            1 textures              8
              lightdata             0
              visdata               0
              entdata             104

0.015 seconds elapsed
Peak memory usage: 294166 (287.3k)
