---- qbsp / ericw-tools v0.18.1-32-g6660c5f ----
Input file: shad_dm2.map
Output file: shad_dm2.bsp

---- LoadMapFile ----
*** WARNING 06: No info_player_deathmatch entities in level
           78 faces
           13 brushes
            2 entities
            1 unique texnames
            6 texinfo

*** WARNING 00: No wad or _wad key exists in the worldmodel
Processing hull 0...
---- Brush_LoadEntity ----
           13 brushes
           51 planes
---- CSGFaces ----
           78 brushfaces
           87 csgfaces
           76 mergedfaces
---- SolidBSP ----
          164 split nodes
           52 solid leafs
          113 empty leafs
            0 water leafs
            0 detail leafs
            0 detail illusionary leafs
            0 detail fence leafs
            0 illusionary visblocker leafs
          244 leaffaces
          231 nodefaces
---- Portalize ----
          113 vis leafs
          113 vis clusters
          336 vis portals
---- FillOutside ----
*** WARNING 10: Reached occupant at (7 98 40), no filling performed.
Leak file written to shad_dm2.pts
---- MakeFaceEdges ----
---- GrowRegions ----
Processing hull 1...
*** WARNING 19: No entities in empty space -- no filling performed (hull 1)
Processing hull 2...
*** WARNING 19: No entities in empty space -- no filling performed (hull 2)
*** WARNING 16: Texture __TB_empty not found
---- WriteBSPFile ----
Wrote shad_dm2.bsp
          142 planes             2840
          317 vertexes           3804
          164 nodes              3936
            6 texinfo             240
          231 faces              4620
          357 clipnodes          2856
          114 leafs              3192
          244 marksurfaces        488
          924 surfedges          3696
          631 edges              2524
            1 textures              8
              lightdata             0
              visdata               0
              entdata             104

0.052 seconds elapsed
Peak memory usage: 1459768 (1.4M)
