---- qbsp / ericw-tools v0.18.1-32-g6660c5f ----
Input file: shad_dm2.map
Output file: shad_dm2.bsp

---- LoadMapFile ----
*** WARNING 06: No info_player_deathmatch entities in level
          138 faces
           23 brushes
            3 entities
            6 unique texnames
          101 texinfo

Opened WAD: E:/My_Workspace/quakedev/wad/START.WAD
Processing hull 0...
---- Brush_LoadEntity ----
           23 brushes
           47 planes
---- CSGFaces ----
          138 brushfaces
          126 csgfaces
          119 mergedfaces
---- SolidBSP ----
          220 split nodes
           82 solid leafs
          139 empty leafs
            0 water leafs
            0 detail leafs
            0 detail illusionary leafs
            0 detail fence leafs
            0 illusionary visblocker leafs
          850 leaffaces
          823 nodefaces
---- Portalize ----
          139 vis leafs
          139 vis clusters
          309 vis portals
---- FillOutside ----
           98 outleafs
---- MergeAll ----
           98 mergefaces
---- SolidBSP ----
           71 split nodes
           43 solid leafs
           29 empty leafs
            0 water leafs
            0 detail leafs
            0 detail illusionary leafs
            0 detail fence leafs
            0 illusionary visblocker leafs
          406 leaffaces
          372 nodefaces
---- Portalize ----
           29 vis leafs
           29 vis clusters
           65 vis portals
---- Tjunc ----
          241 world edges
         1139 edge points
          234 edges added by tjunctions
            0 faces added by tjunctions
---- MakeFaceEdges ----
---- GrowRegions ----
Processing hull 1...
*** WARNING 19: No entities in empty space -- no filling performed (hull 1)
Processing hull 2...
*** WARNING 19: No entities in empty space -- no filling performed (hull 2)
---- WriteBSPFile ----
Wrote shad_dm2.bsp
          114 planes             2280
          485 vertexes           5820
           71 nodes              1704
           56 texinfo            2240
          372 faces              7440
          389 clipnodes          3112
           30 leafs               840
          406 marksurfaces        812
         1722 surfedges          6888
          862 edges              3448
            6 textures          53260
              lightdata             0
              visdata               0
              entdata             219

0.071 seconds elapsed
Peak memory usage: 2145728 (2.0M)
