---- qbsp / ericw-tools v0.18.1-32-g6660c5f ----
Input file: shad_dm2.map
Output file: shad_dm2.bsp

---- LoadMapFile ----
*** WARNING 06: No info_player_deathmatch entities in level
          126 faces
           21 brushes
            5 entities
            6 unique texnames
           90 texinfo

Opened WAD: E:/My_Workspace/quakedev/wad/START.WAD
Processing hull 0...
---- Brush_LoadEntity ----
           21 brushes
           59 planes
---- CSGFaces ----
          126 brushfaces
          141 csgfaces
          141 mergedfaces
---- SolidBSP ----
          413 split nodes
          150 solid leafs
          260 empty leafs
            4 water leafs
            0 detail leafs
            0 detail illusionary leafs
            0 detail fence leafs
            0 illusionary visblocker leafs
         1096 leaffaces
         1076 nodefaces
---- Portalize ----
          264 vis leafs
          264 vis clusters
          676 vis portals
---- FillOutside ----
          161 outleafs
---- MergeAll ----
          140 mergefaces
---- SolidBSP ----
          114 split nodes
           41 solid leafs
           70 empty leafs
            4 water leafs
            0 detail leafs
            0 detail illusionary leafs
            0 detail fence leafs
            0 illusionary visblocker leafs
          613 leaffaces
          491 nodefaces
---- Portalize ----
           74 vis leafs
           74 vis clusters
          243 vis portals
---- Tjunc ----
          330 world edges
         1487 edge points
          326 edges added by tjunctions
            0 faces added by tjunctions
---- MakeFaceEdges ----
---- GrowRegions ----
Processing hull 1...
Processing hull 2...
---- WriteBSPFile ----
Wrote shad_dm2.bsp
          122 planes             2440
          622 vertexes           7464
          114 nodes              2736
           60 texinfo            2400
          491 faces              9820
          387 clipnodes          3096
           75 leafs              2100
          613 marksurfaces       1226
         2290 surfedges          9160
         1146 edges              4584
            6 textures          35596
              lightdata             0
              visdata               0
              entdata             342

0.089 seconds elapsed
Peak memory usage: 2619966 (2.5M)
