---- qbsp / ericw-tools v0.18.1-32-g6660c5f ----
Input file: shad_dm2.map
Output file: shad_dm2.bsp

---- LoadMapFile ----
*** WARNING 06: No info_player_deathmatch entities in level
          102 faces
           17 brushes
           22 entities
            5 unique texnames
           60 texinfo

Opened WAD: E:/My_Workspace/quakedev/wad/START.WAD
Processing hull 0...
---- Brush_LoadEntity ----
           17 brushes
           51 planes
---- CSGFaces ----
          102 brushfaces
          114 csgfaces
          105 mergedfaces
---- SolidBSP ----
          219 split nodes
           78 solid leafs
          142 empty leafs
            0 water leafs
            0 detail leafs
            0 detail illusionary leafs
            0 detail fence leafs
            0 illusionary visblocker leafs
         1006 leaffaces
          987 nodefaces
---- Portalize ----
          142 vis leafs
          142 vis clusters
          350 vis portals
---- FillOutside ----
           97 outleafs
---- MergeAll ----
           98 mergefaces
---- SolidBSP ----
           88 split nodes
           41 solid leafs
           48 empty leafs
            0 water leafs
            0 detail leafs
            0 detail illusionary leafs
            0 detail fence leafs
            0 illusionary visblocker leafs
          531 leaffaces
          444 nodefaces
---- Portalize ----
           48 vis leafs
           48 vis clusters
          147 vis portals
---- Tjunc ----
          272 world edges
         1342 edge points
          278 edges added by tjunctions
            0 faces added by tjunctions
---- MakeFaceEdges ----
---- GrowRegions ----
Processing hull 1...
Processing hull 2...
---- WriteBSPFile ----
Wrote shad_dm2.bsp
          108 planes             2160
          577 vertexes           6924
           88 nodes              2112
           40 texinfo            1600
          444 faces              8880
          264 clipnodes          2112
           49 leafs              1372
          531 marksurfaces       1062
         2054 surfedges          8216
         1028 edges              4112
            5 textures          29664
              lightdata             0
              visdata               0
              entdata            1352

0.077 seconds elapsed
Peak memory usage: 2352458 (2.2M)
