---- qbsp / ericw-tools v0.18.1-32-g6660c5f ----
Input file: singleplayer_map1.map
Output file: singleplayer_map1.bsp

---- LoadMapFile ----
line 6: Unrecognised string escape - \M
line 6: Unrecognised string escape - \q
line 6: Unrecognised string escape - \w
line 6: Unrecognised string escape - \p
line 6: Unrecognised string escape - \M
line 6: Unrecognised string escape - \q
line 6: Unrecognised string escape - \w
line 6: Unrecognised string escape - \S
*** WARNING 06: No info_player_deathmatch entities in level
          368 faces
           61 brushes
           42 entities
            2 unique texnames
           13 texinfo

Opened WAD: E:\My_Workspace\quakedev\wad\prototype_1_2.wad
Opened WAD: E:\My_Workspace\quakedev\wad\START.WAD
Processing hull 0...
---- Brush_LoadEntity ----
           61 brushes
           75 planes
---- CSGFaces ----
          368 brushfaces
          316 csgfaces
          229 mergedfaces
---- SolidBSP ----
          421 split nodes
          162 solid leafs
          248 empty leafs
           12 water leafs
            0 detail leafs
            0 detail illusionary leafs
            0 detail fence leafs
            0 illusionary visblocker leafs
          776 leaffaces
          733 nodefaces
---- Portalize ----
          260 vis leafs
          260 vis clusters
          650 vis portals
---- FillOutside ----
*** WARNING 10: Reached occupant at (-552 -212 -304), no filling performed.
Leak file written to singleplayer_map1.pts
---- MakeFaceEdges ----
---- GrowRegions ----
Processing hull 1...
*** WARNING 10: Reached occupant at (-552 -212 -304), no filling performed.
Processing hull 2...
*** WARNING 10: Reached occupant at (-552 -212 -304), no filling performed.
*** WARNING 16: Texture __TB_empty not found
---- WriteBSPFile ----
Wrote singleplayer_map1.bsp
          191 planes             3820
          860 vertexes          10320
          421 nodes             10104
            8 texinfo             320
          733 faces             14660
          682 clipnodes          5456
          261 leafs              7308
          776 marksurfaces       1552
         2930 surfedges         11720
         1867 edges              7468
            2 textures           5940
              lightdata             0
              visdata               0
              entdata            2580

0.079 seconds elapsed
Peak memory usage: 3709504 (3.5M)
