---- qbsp / ericw-tools v0.18.1-32-g6660c5f ----
Input file: singleplayer_map1.map
Output file: singleplayer_map1.bsp

---- LoadMapFile ----
line 6: Unrecognised string escape - \M
line 6: Unrecognised string escape - \q
line 6: Unrecognised string escape - \w
line 6: Unrecognised string escape - \p
line 6: Unrecognised string escape - \M
line 6: Unrecognised string escape - \q
line 6: Unrecognised string escape - \w
line 6: Unrecognised string escape - \S
*** WARNING 06: No info_player_deathmatch entities in level
          356 faces
           59 brushes
           22 entities
            2 unique texnames
           13 texinfo

Opened WAD: E:\My_Workspace\quakedev\wad\prototype_1_2.wad
Opened WAD: E:\My_Workspace\quakedev\wad\START.WAD
Processing hull 0...
---- Brush_LoadEntity ----
           59 brushes
          100 planes
---- CSGFaces ----
          356 brushfaces
          364 csgfaces
          298 mergedfaces
---- SolidBSP ----
          457 split nodes
          157 solid leafs
          281 empty leafs
           20 water leafs
            0 detail leafs
            0 detail illusionary leafs
            0 detail fence leafs
            0 illusionary visblocker leafs
          860 leaffaces
          775 nodefaces
---- Portalize ----
          301 vis leafs
          301 vis clusters
          882 vis portals
---- FillOutside ----
*** WARNING 10: Reached occupant at (-552 -212 -304), no filling performed.
Leak file written to singleplayer_map1.pts
---- MakeFaceEdges ----
---- GrowRegions ----
Processing hull 1...
*** WARNING 10: Reached occupant at (-552 -212 -304), no filling performed.
Processing hull 2...
*** WARNING 10: Reached occupant at (-552 -212 -304), no filling performed.
*** WARNING 16: Texture __TB_empty not found
---- WriteBSPFile ----
Wrote singleplayer_map1.bsp
          234 planes             4680
          911 vertexes          10932
          457 nodes             10968
            9 texinfo             360
          775 faces             15500
          747 clipnodes          5976
          302 leafs              8456
          860 marksurfaces       1720
         3098 surfedges         12392
         2045 edges              8180
            2 textures           5940
              lightdata             0
              visdata               0
              entdata            1531

0.088 seconds elapsed
Peak memory usage: 3914020 (3.7M)
