---- qbsp / ericw-tools v0.18.1-32-g6660c5f ----
Input file: singleplayer_map1.map
Output file: singleplayer_map1.bsp

---- LoadMapFile ----
line 6: Unrecognised string escape - \M
line 6: Unrecognised string escape - \q
line 6: Unrecognised string escape - \w
line 6: Unrecognised string escape - \p
line 6: Unrecognised string escape - \M
line 6: Unrecognised string escape - \q
line 6: Unrecognised string escape - \w
line 6: Unrecognised string escape - \S
*** WARNING 06: No info_player_deathmatch entities in level
          410 faces
           68 brushes
           42 entities
            2 unique texnames
           13 texinfo

Opened WAD: E:\My_Workspace\quakedev\wad\prototype_1_2.wad
Opened WAD: E:\My_Workspace\quakedev\wad\START.WAD
Processing hull 0...
---- Brush_LoadEntity ----
           68 brushes
           85 planes
---- CSGFaces ----
          410 brushfaces
          346 csgfaces
          252 mergedfaces
---- SolidBSP ----
          492 split nodes
          192 solid leafs
          288 empty leafs
           13 water leafs
            0 detail leafs
            0 detail illusionary leafs
            0 detail fence leafs
            0 illusionary visblocker leafs
          970 leaffaces
          927 nodefaces
---- Portalize ----
          301 vis leafs
          301 vis clusters
          773 vis portals
---- FillOutside ----
*** WARNING 10: Reached occupant at (-364 116 -360), no filling performed.
Leak file written to singleplayer_map1.pts
---- MakeFaceEdges ----
---- GrowRegions ----
Processing hull 1...
*** WARNING 10: Reached occupant at (-552 -212 -304), no filling performed.
Processing hull 2...
*** WARNING 10: Reached occupant at (-552 -212 -304), no filling performed.
*** WARNING 16: Texture __TB_empty not found
---- WriteBSPFile ----
Wrote singleplayer_map1.bsp
          219 planes             4380
         1096 vertexes          13152
          492 nodes             11808
            8 texinfo             320
          927 faces             18540
          804 clipnodes          6432
          302 leafs              8456
          970 marksurfaces       1940
         3706 surfedges         14824
         2338 edges              9352
            2 textures           5940
              lightdata             0
              visdata               0
              entdata            2603

0.109 seconds elapsed
Peak memory usage: 4480768 (4.3M)
