---- qbsp / ericw-tools v0.18.1-32-g6660c5f ----
Input file: singleplayer_map1.map
Output file: singleplayer_map1.bsp

---- LoadMapFile ----
*** WARNING 06: No info_player_deathmatch entities in level
          326 faces
           54 brushes
           26 entities
            1 unique texnames
            7 texinfo

*** WARNING 00: No wad or _wad key exists in the worldmodel
Processing hull 0...
---- Brush_LoadEntity ----
           54 brushes
           66 planes
---- CSGFaces ----
          326 brushfaces
          255 csgfaces
          174 mergedfaces
---- SolidBSP ----
          316 split nodes
          113 solid leafs
          204 empty leafs
            0 water leafs
            0 detail leafs
            0 detail illusionary leafs
            0 detail fence leafs
            0 illusionary visblocker leafs
          534 leaffaces
          502 nodefaces
---- Portalize ----
          204 vis leafs
          204 vis clusters
          540 vis portals
---- FillOutside ----
*** WARNING 10: Reached occupant at (-624 -204 52), no filling performed.
Leak file written to singleplayer_map1.pts
---- MakeFaceEdges ----
---- GrowRegions ----
Processing hull 1...
Processing hull 2...
*** WARNING 16: Texture __TB_empty not found
---- WriteBSPFile ----
Wrote singleplayer_map1.bsp
          101 planes             2020
          620 vertexes           7440
          316 nodes              7584
            7 texinfo             280
          502 faces             10040
           66 clipnodes           528
          205 leafs              5740
          534 marksurfaces       1068
         2006 surfedges          8024
         1299 edges              5196
            1 textures              8
              lightdata             0
              visdata               0
              entdata            1502

0.081 seconds elapsed
Peak memory usage: 2888404 (2.8M)
