---- qbsp / ericw-tools v0.18.1-32-g6660c5f ----
Input file: singleplayer_map1.map
Output file: singleplayer_map1.bsp

---- LoadMapFile ----
line 6: Unrecognised string escape - \M
line 6: Unrecognised string escape - \q
line 6: Unrecognised string escape - \w
line 6: Unrecognised string escape - \p
line 6: Unrecognised string escape - \M
line 6: Unrecognised string escape - \q
line 6: Unrecognised string escape - \w
line 6: Unrecognised string escape - \S
*** WARNING 06: No info_player_deathmatch entities in level
          428 faces
           71 brushes
           48 entities
            2 unique texnames
           13 texinfo

Opened WAD: E:\My_Workspace\quakedev\wad\prototype_1_2.wad
Opened WAD: E:\My_Workspace\quakedev\wad\START.WAD
Processing hull 0...
---- Brush_LoadEntity ----
           71 brushes
           91 planes
---- CSGFaces ----
          428 brushfaces
          366 csgfaces
          270 mergedfaces
---- SolidBSP ----
          553 split nodes
          213 solid leafs
          328 empty leafs
           13 water leafs
            0 detail leafs
            0 detail illusionary leafs
            0 detail fence leafs
            0 illusionary visblocker leafs
         1070 leaffaces
         1023 nodefaces
---- Portalize ----
          341 vis leafs
          341 vis clusters
          873 vis portals
---- FillOutside ----
*** WARNING 10: Reached occupant at (276 -272 -92), no filling performed.
Leak file written to singleplayer_map1.pts
---- MakeFaceEdges ----
---- GrowRegions ----
Processing hull 1...
*** WARNING 10: Reached occupant at (-552 -212 -304), no filling performed.
Processing hull 2...
*** WARNING 10: Reached occupant at (-552 -212 -304), no filling performed.
*** WARNING 16: Texture __TB_empty not found
---- WriteBSPFile ----
Wrote singleplayer_map1.bsp
          236 planes             4720
         1223 vertexes          14676
          553 nodes             13272
            8 texinfo             320
         1023 faces             20460
          880 clipnodes          7040
          342 leafs              9576
         1070 marksurfaces       2140
         4090 surfedges         16360
         2603 edges             10412
            2 textures           5940
              lightdata             0
              visdata               0
              entdata            3002

0.116 seconds elapsed
Peak memory usage: 4883184 (4.7M)
