---- qbsp / ericw-tools v0.18.1-32-g6660c5f ----
Input file: testing_ground.map
Output file: testing_ground.bsp

---- LoadMapFile ----
*** WARNING 05: No info_player_start entity in level
*** WARNING 06: No info_player_deathmatch entities in level
            6 faces
            1 brushes
            1 entities
            1 unique texnames
            6 texinfo

*** WARNING 00: No wad or _wad key exists in the worldmodel
Processing hull 0...
---- Brush_LoadEntity ----
            1 brushes
            6 planes
---- CSGFaces ----
            6 brushfaces
            6 csgfaces
            6 mergedfaces
---- SolidBSP ----
            6 split nodes
            1 solid leafs
            6 empty leafs
            0 water leafs
            0 detail leafs
            0 detail illusionary leafs
            0 detail fence leafs
            0 illusionary visblocker leafs
           30 leaffaces
           30 nodefaces
---- Portalize ----
            6 vis leafs
            6 vis clusters
           12 vis portals
---- FillOutside ----
*** WARNING 19: No entities in empty space -- no filling performed (hull 0)
---- MakeFaceEdges ----
---- GrowRegions ----
Processing hull 1...
*** WARNING 19: No entities in empty space -- no filling performed (hull 1)
Processing hull 2...
*** WARNING 19: No entities in empty space -- no filling performed (hull 2)
*** WARNING 16: Texture __TB_empty not found
---- WriteBSPFile ----
Wrote testing_ground.bsp
           17 planes              340
           40 vertexes            480
            6 nodes               144
            6 texinfo             240
           30 faces               600
           12 clipnodes            96
            7 leafs               196
           30 marksurfaces         60
          120 surfedges           480
           73 edges               292
            1 textures              8
              lightdata             0
              visdata               0
              entdata              67

0.020 seconds elapsed
Peak memory usage: 114952 (112.3k)
