---- qbsp / ericw-tools v0.18.1-32-g6660c5f ----
Input file: cube_dm.map
Output file: cube_dm.bsp

---- LoadMapFile ----
line 6: Unrecognised string escape - \M
line 6: Unrecognised string escape - \q
line 6: Unrecognised string escape - \w
line 6: Unrecognised string escape - \p
line 6: Unrecognised string escape - \M
line 6: Unrecognised string escape - \q
line 6: Unrecognised string escape - \w
line 6: Unrecognised string escape - \S
*** WARNING 06: No info_player_deathmatch entities in level
          180 faces
           30 brushes
           26 entities
            2 unique texnames
           26 texinfo

Opened WAD: E:\My_Workspace\quakedev\wad\prototype_1_2.wad
Opened WAD: E:\My_Workspace\quakedev\wad\START.WAD
Processing hull 0...
---- Brush_LoadEntity ----
           30 brushes
           40 planes
---- CSGFaces ----
          180 brushfaces
          198 csgfaces
          182 mergedfaces
---- SolidBSP ----
          553 split nodes
          175 solid leafs
          298 empty leafs
           81 water leafs
            0 detail leafs
            0 detail illusionary leafs
            0 detail fence leafs
            0 illusionary visblocker leafs
         1934 leaffaces
         1907 nodefaces
---- Portalize ----
          379 vis leafs
          379 vis clusters
          963 vis portals
---- FillOutside ----
          191 outleafs
---- MergeAll ----
          174 mergefaces
---- SolidBSP ----
          139 split nodes
           59 solid leafs
           57 empty leafs
           24 water leafs
            0 detail leafs
            0 detail illusionary leafs
            0 detail fence leafs
            0 illusionary visblocker leafs
          982 leaffaces
          848 nodefaces
---- Portalize ----
           81 vis leafs
           81 vis clusters
          266 vis portals
---- Tjunc ----
          372 world edges
         2162 edge points
          450 edges added by tjunctions
            0 faces added by tjunctions
---- MakeFaceEdges ----
---- GrowRegions ----
Processing hull 1...
Processing hull 2...
*** WARNING 16: Texture __TB_empty not found
---- WriteBSPFile ----
Wrote cube_dm.bsp
           83 planes             1660
          929 vertexes          11148
          139 nodes              3336
           13 texinfo             520
          848 faces             16960
          328 clipnodes          2624
           82 leafs              2296
          982 marksurfaces       1964
         3842 surfedges         15368
         1922 edges              7688
            2 textures           5940
              lightdata             0
              visdata               0
              entdata            1573

0.110 seconds elapsed
Peak memory usage: 4132872 (3.9M)
