---- qbsp / ericw-tools v0.18.1-32-g6660c5f ----
Input file: cube_dm_freestyle.map
Output file: cube_dm_freestyle.bsp

---- LoadMapFile ----
line 6: Unrecognised string escape - \M
line 6: Unrecognised string escape - \q
line 6: Unrecognised string escape - \w
line 6: Unrecognised string escape - \p
line 6: Unrecognised string escape - \M
line 6: Unrecognised string escape - \q
line 6: Unrecognised string escape - \w
line 6: Unrecognised string escape - \S
line 6: Unrecognised string escape - \q
line 6: Unrecognised string escape - \w
line 6: Unrecognised string escape - \i
line 6: Unrecognised string escape - \q
line 6: Unrecognised string escape - \w
line 6: Unrecognised string escape - \p
line 960: Unrecognised string escape - \M
line 960: Unrecognised string escape - \q
line 960: Unrecognised string escape - \w
line 960: Unrecognised string escape - \p
line 960: Unrecognised string escape - \M
line 960: Unrecognised string escape - \q
line 960: Unrecognised string escape - \w
line 960: Unrecognised string escape - \S
line 960: Unrecognised string escape - \q
line 960: Unrecognised string escape - \w
line 960: Unrecognised string escape - \i
line 960: Unrecognised string escape - \q
line 960: Unrecognised string escape - \w
line 960: Unrecognised string escape - \p
line 960: Unrecognised string escape - \M
line 960: Unrecognised string escape - \q
line 960: Unrecognised string escape - \w
line 960: Unrecognised string escape - \p
          578 faces
           97 brushes
           41 entities
            6 unique texnames
          204 texinfo

Opened WAD: E:\My_Workspace\quakedev\wad\prototype_1_2.wad
Opened WAD: E:\My_Workspace\quakedev\wad\START.WAD
Processing hull 0...
---- Brush_LoadEntity ----
           89 brushes
          110 planes
---- CSGFaces ----
          530 brushfaces
          542 csgfaces
          541 mergedfaces
---- SolidBSP ----
         1037 split nodes
          332 solid leafs
          630 empty leafs
           76 water leafs
            0 detail leafs
            0 detail illusionary leafs
            0 detail fence leafs
            0 illusionary visblocker leafs
         2836 leaffaces
         2762 nodefaces
---- Portalize ----
          706 vis leafs
          706 vis clusters
         2032 vis portals
---- FillOutside ----
          278 outleafs
---- MergeAll ----
          531 mergefaces
---- SolidBSP ----
          408 split nodes
          183 solid leafs
          196 empty leafs
           30 water leafs
            0 detail leafs
            0 detail illusionary leafs
            0 detail fence leafs
            0 illusionary visblocker leafs
         1621 leaffaces
         1379 nodefaces
---- Portalize ----
          226 vis leafs
          226 vis clusters
          726 vis portals
---- Tjunc ----
          929 world edges
         4316 edge points
         1262 edges added by tjunctions
            0 faces added by tjunctions
---- MakeFaceEdges ----
---- GrowRegions ----
Processing hull 1...
Processing hull 2...
*** WARNING 16: Texture sky4 not found
---- WriteBSPFile ----
Wrote cube_dm_freestyle.bsp
          270 planes             5400
         2117 vertexes          25404
          456 nodes             10944
          171 texinfo            6840
         1635 faces             32700
         1359 clipnodes         10872
          275 leafs              7700
         1877 marksurfaces       3754
         7928 surfedges         31712
         3965 edges             15860
            6 textures          77284
              lightdata             0
              visdata               0
              entdata            3334

0.165 seconds elapsed
Peak memory usage: 8720466 (8.3M)
