---- qbsp / ericw-tools v0.18.1-32-g6660c5f ----
Input file: cube_dm.map
Output file: cube_dm.bsp

---- LoadMapFile ----
line 6: Unrecognised string escape - \M
line 6: Unrecognised string escape - \q
line 6: Unrecognised string escape - \w
line 6: Unrecognised string escape - \p
line 6: Unrecognised string escape - \M
line 6: Unrecognised string escape - \q
line 6: Unrecognised string escape - \w
line 6: Unrecognised string escape - \S
*** WARNING 06: No info_player_deathmatch entities in level
           36 faces
            6 brushes
            2 entities
            1 unique texnames
            6 texinfo

Opened WAD: E:\My_Workspace\quakedev\wad\prototype_1_2.wad
Opened WAD: E:\My_Workspace\quakedev\wad\START.WAD
Processing hull 0...
---- Brush_LoadEntity ----
            6 brushes
           12 planes
---- CSGFaces ----
           36 brushfaces
           24 csgfaces
           12 mergedfaces
---- SolidBSP ----
           24 split nodes
            6 solid leafs
           19 empty leafs
            0 water leafs
            0 detail leafs
            0 detail illusionary leafs
            0 detail fence leafs
            0 illusionary visblocker leafs
          836 leaffaces
          836 nodefaces
---- Portalize ----
           19 vis leafs
           19 vis clusters
           48 vis portals
---- FillOutside ----
           18 outleafs
---- MergeAll ----
            6 mergefaces
---- SolidBSP ----
            6 split nodes
            6 solid leafs
            1 empty leafs
            0 water leafs
            0 detail leafs
            0 detail illusionary leafs
            0 detail fence leafs
            0 illusionary visblocker leafs
          370 leaffaces
          370 nodefaces
---- Portalize ----
            1 vis leafs
            1 vis clusters
            0 vis portals
---- Tjunc ----
           96 world edges
          870 edge points
           68 edges added by tjunctions
            0 faces added by tjunctions
---- MakeFaceEdges ----
---- GrowRegions ----
Processing hull 1...
*** WARNING 19: No entities in empty space -- no filling performed (hull 1)
Processing hull 2...
*** WARNING 19: No entities in empty space -- no filling performed (hull 2)
*** WARNING 16: Texture __TB_empty not found
---- WriteBSPFile ----
Wrote cube_dm.bsp
           28 planes              560
          406 vertexes           4872
            6 nodes               144
            6 texinfo             240
          370 faces              7400
           48 clipnodes           384
            2 leafs                56
          370 marksurfaces        740
         1548 surfedges          6192
          775 edges              3100
            1 textures              8
              lightdata             0
              visdata               0
              entdata             197

0.026 seconds elapsed
Peak memory usage: 1835784 (1.8M)
