---- qbsp / ericw-tools v0.18.1-32-g6660c5f ----
Input file: cube_dm.map
Output file: cube_dm.bsp

---- LoadMapFile ----
line 6: Unrecognised string escape - \M
line 6: Unrecognised string escape - \q
line 6: Unrecognised string escape - \w
line 6: Unrecognised string escape - \p
line 6: Unrecognised string escape - \M
line 6: Unrecognised string escape - \q
line 6: Unrecognised string escape - \w
line 6: Unrecognised string escape - \S
*** WARNING 06: No info_player_deathmatch entities in level
           30 faces
            5 brushes
            2 entities
            1 unique texnames
            6 texinfo

Opened WAD: E:\My_Workspace\quakedev\wad\prototype_1_2.wad
Opened WAD: E:\My_Workspace\quakedev\wad\START.WAD
Processing hull 0...
---- Brush_LoadEntity ----
            5 brushes
           11 planes
---- CSGFaces ----
           30 brushfaces
           22 csgfaces
           14 mergedfaces
---- SolidBSP ----
           22 split nodes
            5 solid leafs
           18 empty leafs
            0 water leafs
            0 detail leafs
            0 detail illusionary leafs
            0 detail fence leafs
            0 illusionary visblocker leafs
          500 leaffaces
          500 nodefaces
---- Portalize ----
           18 vis leafs
           18 vis clusters
           48 vis portals
---- FillOutside ----
*** WARNING 10: Reached occupant at (4 0 40), no filling performed.
Leak file written to cube_dm.pts
---- MakeFaceEdges ----
---- GrowRegions ----
Processing hull 1...
*** WARNING 19: No entities in empty space -- no filling performed (hull 1)
Processing hull 2...
*** WARNING 19: No entities in empty space -- no filling performed (hull 2)
*** WARNING 16: Texture __TB_empty not found
---- WriteBSPFile ----
Wrote cube_dm.bsp
           31 planes              620
          598 vertexes           7176
           22 nodes               528
            6 texinfo             240
          500 faces             10000
           44 clipnodes           352
           19 leafs               532
          500 marksurfaces       1000
         2000 surfedges          8000
         1108 edges              4432
            1 textures              8
              lightdata             0
              visdata               0
              entdata             197

0.022 seconds elapsed
Peak memory usage: 1346584 (1.3M)
