---- qbsp / ericw-tools v0.18.1-32-g6660c5f ----
Input file: cube_dm.map
Output file: cube_dm.bsp

---- LoadMapFile ----
line 6: Unrecognised string escape - \M
line 6: Unrecognised string escape - \q
line 6: Unrecognised string escape - \w
line 6: Unrecognised string escape - \p
line 6: Unrecognised string escape - \M
line 6: Unrecognised string escape - \q
line 6: Unrecognised string escape - \w
line 6: Unrecognised string escape - \S
*** WARNING 06: No info_player_deathmatch entities in level
          186 faces
           31 brushes
            4 entities
            2 unique texnames
           30 texinfo

Opened WAD: E:\My_Workspace\quakedev\wad\prototype_1_2.wad
Opened WAD: E:\My_Workspace\quakedev\wad\START.WAD
Processing hull 0...
---- Brush_LoadEntity ----
           30 brushes
           39 planes
---- CSGFaces ----
          180 brushfaces
          187 csgfaces
          176 mergedfaces
---- SolidBSP ----
          481 split nodes
          159 solid leafs
          242 empty leafs
           81 water leafs
            0 detail leafs
            0 detail illusionary leafs
            0 detail fence leafs
            0 illusionary visblocker leafs
         1786 leaffaces
         1759 nodefaces
---- Portalize ----
          323 vis leafs
          323 vis clusters
          814 vis portals
---- FillOutside ----
          171 outleafs
---- MergeAll ----
          168 mergefaces
---- SolidBSP ----
          126 split nodes
           52 solid leafs
           51 empty leafs
           24 water leafs
            0 detail leafs
            0 detail illusionary leafs
            0 detail fence leafs
            0 illusionary visblocker leafs
          955 leaffaces
          796 nodefaces
---- Portalize ----
           75 vis leafs
           75 vis clusters
          245 vis portals
---- Tjunc ----
          365 world edges
         2068 edge points
          390 edges added by tjunctions
            0 faces added by tjunctions
---- MakeFaceEdges ----
---- GrowRegions ----
Processing hull 1...
Processing hull 2...
*** WARNING 16: Texture __TB_empty not found
---- WriteBSPFile ----
Wrote cube_dm.bsp
           96 planes             1920
          895 vertexes          10740
          132 nodes              3168
           17 texinfo             680
          802 faces             16040
          340 clipnodes          2720
           82 leafs              2296
          961 marksurfaces       1922
         3598 surfedges         14392
         1800 edges              7200
            2 textures           5940
              lightdata             0
              visdata               0
              entdata             432

0.106 seconds elapsed
Peak memory usage: 3804580 (3.6M)
