---- qbsp / ericw-tools v0.18.1-32-g6660c5f ----
Input file: dimensions-compile.map
Output file: dimensions.bsp

---- LoadMapFile ----
line 4: Unrecognised string escape - \M
line 4: Unrecognised string escape - \q
line 4: Unrecognised string escape - \w
line 4: Unrecognised string escape - \p
line 4: Unrecognised string escape - \M
line 4: Unrecognised string escape - \q
line 4: Unrecognised string escape - \w
line 4: Unrecognised string escape - \S
line 4: Unrecognised string escape - \M
line 4: Unrecognised string escape - \q
line 4: Unrecognised string escape - \w
line 4: Unrecognised string escape - \p
*** WARNING 06: No info_player_deathmatch entities in level
          378 faces
           63 brushes
            2 entities
            3 unique texnames
           20 texinfo

Opened WAD: E:\My_Workspace\quakedev\wad\prototype_all_1_3.wad
Opened WAD: E:\My_Workspace\quakedev\wad\START.WAD
Opened WAD: E:\My_Workspace\quakedev\wad\prototype_1_2.wad
Processing hull 0...
---- Brush_LoadEntity ----
           63 brushes
           79 planes
---- CSGFaces ----
          378 brushfaces
          315 csgfaces
          297 mergedfaces
---- SolidBSP ----
          382 split nodes
          136 solid leafs
          211 empty leafs
           36 water leafs
            0 detail leafs
            0 detail illusionary leafs
            0 detail fence leafs
            0 illusionary visblocker leafs
          829 leaffaces
          771 nodefaces
---- Portalize ----
          247 vis leafs
          247 vis clusters
          595 vis portals
---- FillOutside ----
*** WARNING 10: Reached occupant at (1372 -240 40), no filling performed.
Leak file written to dimensions.pts
---- MakeFaceEdges ----
---- GrowRegions ----
Processing hull 1...
*** WARNING 19: No entities in empty space -- no filling performed (hull 1)
Processing hull 2...
*** WARNING 19: No entities in empty space -- no filling performed (hull 2)
*** WARNING 16: Texture __TB_empty not found
---- WriteBSPFile ----
Wrote dimensions.bsp
          207 planes             4140
          892 vertexes          10704
          382 nodes              9168
           10 texinfo             400
          771 faces             15420
          851 clipnodes          6808
          248 leafs              6944
          829 marksurfaces       1658
         3084 surfedges         12336
         2053 edges              8212
            3 textures          11872
              lightdata             0
              visdata               0
              entdata             268

0.033 seconds elapsed
Peak memory usage: 4342498 (4.1M)
