---- qbsp / ericw-tools v0.18.1-32-g6660c5f ----
Input file: se730M1.map
Output file: se730M1.bsp

---- LoadMapFile ----
line 6: Unrecognised string escape - \M
line 6: Unrecognised string escape - \q
line 6: Unrecognised string escape - \w
line 6: Unrecognised string escape - \p
line 6: Unrecognised string escape - \M
line 6: Unrecognised string escape - \q
line 6: Unrecognised string escape - \w
line 6: Unrecognised string escape - \S
line 6: Unrecognised string escape - \M
line 6: Unrecognised string escape - \q
line 6: Unrecognised string escape - \w
line 6: Unrecognised string escape - \p
*** WARNING 06: No info_player_deathmatch entities in level
          264 faces
           44 brushes
            3 entities
            1 unique texnames
            8 texinfo

Opened WAD: E:\My_Workspace\quakedev\wad\prototype_all_1_3.wad
Opened WAD: E:\My_Workspace\quakedev\wad\START.WAD
Opened WAD: E:\My_Workspace\quakedev\wad\prototype_1_2.wad
Processing hull 0...
---- Brush_LoadEntity ----
           44 brushes
           86 planes
---- CSGFaces ----
          264 brushfaces
          249 csgfaces
          244 mergedfaces
---- SolidBSP ----
          208 split nodes
           62 solid leafs
          147 empty leafs
            0 water leafs
            0 detail leafs
            0 detail illusionary leafs
            0 detail fence leafs
            0 illusionary visblocker leafs
          436 leaffaces
          424 nodefaces
---- Portalize ----
          147 vis leafs
          147 vis clusters
          419 vis portals
---- FillOutside ----
*** WARNING 10: Reached occupant at (-304 80 56), no filling performed.
Leak file written to se730M1.pts
---- MakeFaceEdges ----
---- GrowRegions ----
Processing hull 1...
*** WARNING 19: No entities in empty space -- no filling performed (hull 1)
Processing hull 2...
*** WARNING 19: No entities in empty space -- no filling performed (hull 2)
*** WARNING 16: Texture __TB_empty not found
---- WriteBSPFile ----
Wrote se730M1.bsp
          202 planes             4040
          507 vertexes           6084
          208 nodes              4992
            8 texinfo             320
          424 faces              8480
          524 clipnodes          4192
          148 leafs              4144
          436 marksurfaces        872
         1696 surfedges          6784
          983 edges              3932
            1 textures              8
              lightdata             0
              visdata               0
              entdata             314

0.068 seconds elapsed
Peak memory usage: 2728512 (2.6M)
