---- qbsp / ericw-tools v0.18.1-32-g6660c5f ----
Input file: se730M1.map
Output file: se730M1.bsp

---- LoadMapFile ----
line 6: Unrecognised string escape - \M
line 6: Unrecognised string escape - \q
line 6: Unrecognised string escape - \w
line 6: Unrecognised string escape - \p
line 6: Unrecognised string escape - \M
line 6: Unrecognised string escape - \q
line 6: Unrecognised string escape - \w
line 6: Unrecognised string escape - \S
line 6: Unrecognised string escape - \M
line 6: Unrecognised string escape - \q
line 6: Unrecognised string escape - \w
line 6: Unrecognised string escape - \p
*** WARNING 06: No info_player_deathmatch entities in level
          180 faces
           30 brushes
            8 entities
            1 unique texnames
            8 texinfo

Opened WAD: E:\My_Workspace\quakedev\wad\prototype_all_1_3.wad
Opened WAD: E:\My_Workspace\quakedev\wad\START.WAD
Opened WAD: E:\My_Workspace\quakedev\wad\prototype_1_2.wad
Processing hull 0...
---- Brush_LoadEntity ----
           30 brushes
           49 planes
---- CSGFaces ----
          180 brushfaces
          178 csgfaces
          159 mergedfaces
---- SolidBSP ----
          173 split nodes
           60 solid leafs
          114 empty leafs
            0 water leafs
            0 detail leafs
            0 detail illusionary leafs
            0 detail fence leafs
            0 illusionary visblocker leafs
          388 leaffaces
          360 nodefaces
---- Portalize ----
          114 vis leafs
          114 vis clusters
          301 vis portals
---- FillOutside ----
*** WARNING 10: Reached occupant at (416 16 200), no filling performed.
Leak file written to se730M1.pts
---- MakeFaceEdges ----
---- GrowRegions ----
Processing hull 1...
*** WARNING 19: No entities in empty space -- no filling performed (hull 1)
Processing hull 2...
*** WARNING 19: No entities in empty space -- no filling performed (hull 2)
*** WARNING 16: Texture __TB_empty not found
---- WriteBSPFile ----
Wrote se730M1.bsp
           99 planes             1980
          451 vertexes           5412
          173 nodes              4152
            7 texinfo             280
          360 faces              7200
          375 clipnodes          3000
          115 leafs              3220
          388 marksurfaces        776
         1440 surfedges          5760
          960 edges              3840
            1 textures              8
              lightdata             0
              visdata               0
              entdata             580

0.066 seconds elapsed
Peak memory usage: 1999876 (1.9M)
