---- qbsp / ericw-tools v0.18.1-32-g6660c5f ----
Input file: se730M1.map
Output file: se730M1.bsp

---- LoadMapFile ----
line 6: Unrecognised string escape - \M
line 6: Unrecognised string escape - \q
line 6: Unrecognised string escape - \w
line 6: Unrecognised string escape - \p
line 6: Unrecognised string escape - \M
line 6: Unrecognised string escape - \q
line 6: Unrecognised string escape - \w
line 6: Unrecognised string escape - \S
line 6: Unrecognised string escape - \M
line 6: Unrecognised string escape - \q
line 6: Unrecognised string escape - \w
line 6: Unrecognised string escape - \p
*** WARNING 06: No info_player_deathmatch entities in level
           72 faces
           12 brushes
            2 entities
            1 unique texnames
            6 texinfo

Opened WAD: E:\My_Workspace\quakedev\wad\prototype_all_1_3.wad
Opened WAD: E:\My_Workspace\quakedev\wad\START.WAD
Opened WAD: E:\My_Workspace\quakedev\wad\prototype_1_2.wad
Processing hull 0...
---- Brush_LoadEntity ----
           12 brushes
           27 planes
---- CSGFaces ----
           72 brushfaces
           69 csgfaces
           64 mergedfaces
---- SolidBSP ----
           42 split nodes
           11 solid leafs
           32 empty leafs
            0 water leafs
            0 detail leafs
            0 detail illusionary leafs
            0 detail fence leafs
            0 illusionary visblocker leafs
           71 leaffaces
           71 nodefaces
---- Portalize ----
           32 vis leafs
           32 vis clusters
           91 vis portals
---- FillOutside ----
*** WARNING 10: Reached occupant at (-96 80 40), no filling performed.
Leak file written to se730M1.pts
---- MakeFaceEdges ----
---- GrowRegions ----
Processing hull 1...
*** WARNING 19: No entities in empty space -- no filling performed (hull 1)
Processing hull 2...
*** WARNING 19: No entities in empty space -- no filling performed (hull 2)
*** WARNING 16: Texture __TB_empty not found
---- WriteBSPFile ----
Wrote se730M1.bsp
           52 planes             1040
           76 vertexes            912
           42 nodes              1008
            6 texinfo             240
           71 faces              1420
          108 clipnodes           864
           33 leafs               924
           71 marksurfaces        142
          284 surfedges          1136
          150 edges               600
            1 textures              8
              lightdata             0
              visdata               0
              entdata             251

0.032 seconds elapsed
Peak memory usage: 618434 (0.6M)
